Version 4
SHEET 1 1172 776
WIRE 192 -32 48 -32
WIRE 448 -32 256 -32
WIRE -80 160 -240 160
WIRE 48 160 48 -32
WIRE 48 160 -80 160
WIRE 96 160 48 160
WIRE 448 160 448 -32
WIRE 448 160 352 160
WIRE 576 160 448 160
WIRE 752 160 576 160
WIRE 864 160 752 160
WIRE 992 160 864 160
WIRE 1040 160 992 160
WIRE -240 240 -240 160
WIRE 576 256 576 160
WIRE 752 272 752 160
WIRE -80 384 -80 160
WIRE 864 384 864 160
WIRE 992 384 992 160
WIRE 224 416 224 256
WIRE 576 416 576 336
WIRE 576 416 224 416
WIRE 752 416 752 336
WIRE 752 416 576 416
WIRE 752 480 752 416
WIRE 224 496 224 416
WIRE -240 672 -240 320
WIRE -80 672 -80 448
WIRE -80 672 -240 672
WIRE 224 672 224 576
WIRE 224 672 -80 672
WIRE 752 672 752 544
WIRE 752 672 224 672
WIRE 864 672 864 448
WIRE 864 672 752 672
WIRE 992 672 992 464
WIRE 992 672 864 672
WIRE 224 736 224 672
FLAG 224 736 0
FLAG 1040 160 U_aus
IOPIN 1040 160 Out
SYMBOL PowerProducts\\LT317A 224 160 R0
SYMATTR InstName U1
SYMBOL res 208 480 R0
SYMATTR InstName R2
SYMATTR Value 820
SYMBOL res 560 240 R0
SYMATTR InstName R1
SYMATTR Value 270
SYMBOL diode 768 336 R180
WINDOW 0 24 64 Left 2
WINDOW 3 24 0 Left 2
SYMATTR InstName D1
SYMATTR Value MURS120
SYMBOL diode 256 -48 R90
WINDOW 0 0 32 VBottom 2
WINDOW 3 32 32 VTop 2
SYMATTR InstName D2
SYMATTR Value MURS120
SYMBOL polcap -96 384 R0
WINDOW 3 24 56 Left 2
SYMATTR InstName C_i
SYMATTR Value 0.1µ
SYMATTR Description Capacitor
SYMATTR Type cap
SYMATTR SpiceLine V=50 Irms=22m Rser=3.9 Lser=0
SYMBOL polcap 848 384 R0
WINDOW 3 24 56 Left 2
SYMATTR InstName C_o
SYMATTR Value 1µ
SYMATTR Description Capacitor
SYMATTR Type cap
SYMATTR SpiceLine V=50 Irms=36m Rser=3.5 Lser=0 mfg="Nichicon" pn="UPL1H010MAH" type="Al electrolytic"
SYMBOL voltage -240 224 R0
WINDOW 123 0 0 Left 0
WINDOW 39 24 124 Left 2
SYMATTR InstName U_ein
SYMATTR Value 12
SYMATTR SpiceLine Rser=0.1
SYMBOL res 976 368 R0
SYMATTR InstName R_minilast
SYMATTR Value 1k2
SYMBOL cap 736 480 R0
SYMATTR InstName C1
SYMATTR Value 10µ
TEXT -274 760 Left 2 !.tran 0.001
