Version 4
SHEET 1 1700 880
WIRE 192 -32 -16 -32
WIRE 592 -32 256 -32
WIRE -16 160 -16 -32
WIRE -16 160 -176 160
WIRE 96 160 -16 160
WIRE 416 160 352 160
WIRE 592 160 592 -32
WIRE 592 160 496 160
WIRE 768 160 592 160
WIRE 864 160 768 160
WIRE 992 160 864 160
WIRE 1040 160 992 160
WIRE -176 224 -176 160
WIRE -112 224 -176 224
WIRE 592 256 592 160
WIRE -176 272 -176 224
WIRE 768 272 768 160
WIRE 992 272 992 160
WIRE 1168 272 992 272
WIRE 224 304 224 256
WIRE -176 384 -176 352
WIRE -112 384 -112 224
WIRE -112 384 -176 384
WIRE -16 384 -16 160
WIRE 864 384 864 160
WIRE 1168 384 1168 272
WIRE 224 416 224 384
WIRE 592 416 592 336
WIRE 592 416 224 416
WIRE 768 416 768 336
WIRE 768 416 592 416
WIRE -176 464 -176 384
WIRE 768 480 768 416
WIRE 224 496 224 416
WIRE -176 672 -176 544
WIRE -16 672 -16 448
WIRE -16 672 -176 672
WIRE 224 672 224 576
WIRE 224 672 -16 672
WIRE 768 672 768 544
WIRE 768 672 224 672
WIRE 864 672 864 448
WIRE 864 672 768 672
WIRE 992 672 992 448
WIRE 992 672 864 672
WIRE 1168 672 1168 448
WIRE 1168 672 992 672
WIRE 224 736 224 672
FLAG 224 736 0
FLAG 1040 160 U_out
IOPIN 1040 160 Out
SYMBOL PowerProducts\\LT317A 224 160 R0
SYMATTR InstName U1
SYMBOL diode 784 336 R180
WINDOW 0 24 64 Left 2
WINDOW 3 24 0 Left 2
SYMATTR InstName D1
SYMATTR Value MURS120
SYMBOL diode 256 -48 R90
WINDOW 0 0 32 VBottom 2
WINDOW 3 32 32 VTop 2
SYMATTR InstName D2
SYMATTR Value MURS120
SYMBOL polcap -32 384 R0
WINDOW 3 24 56 Left 2
SYMATTR Value 0.1µ
SYMATTR InstName C_i
SYMATTR Description Capacitor
SYMATTR Type cap
SYMATTR SpiceLine V=50 Irms=22m Rser=3.9 Lser=0
SYMBOL polcap 848 384 R0
WINDOW 3 24 56 Left 2
SYMATTR Value 1µ
SYMATTR InstName C_o
SYMATTR Description Capacitor
SYMATTR Type cap
SYMATTR SpiceLine V=50 Irms=36m Rser=3.5 Lser=0 mfg="Nichicon" pn="UPL1H010MAH" type="Al electrolytic"
SYMBOL voltage -176 448 R0
WINDOW 123 0 0 Left 0
WINDOW 39 24 124 Left 2
SYMATTR SpiceLine Rser=0.1
SYMATTR InstName U_ein
SYMATTR Value {Uin}
SYMBOL cap 752 480 R0
SYMATTR InstName C1
SYMATTR Value {Cadj}
SYMBOL res 208 480 R0
SYMATTR InstName R2
SYMATTR Value {fback2}
SYMBOL res 576 240 R0
WINDOW 0 -48 34 Left 2
WINDOW 3 -112 81 Left 2
SYMATTR InstName R1
SYMATTR Value {fback1}
SYMBOL res 512 144 R90
WINDOW 0 0 56 VBottom 2
WINDOW 3 32 56 VTop 2
SYMATTR InstName Output_Shunt
SYMATTR Value 0.001
SYMBOL res 208 288 R0
SYMATTR InstName Adj
SYMATTR Value 0.00001R
SYMBOL res 976 352 R0
SYMATTR InstName R_load
SYMATTR Value 10
SYMBOL voltage -176 256 R0
WINDOW 0 -48 9 Left 2
WINDOW 3 -356 108 Left 2
WINDOW 123 -356 136 Left 2
WINDOW 39 0 0 Left 0
SYMATTR InstName V1
SYMATTR Value SINE(0 1 120 0 0 0)
SYMATTR Value2 AC 1
SYMBOL load 1152 384 R0
WINDOW 123 0 0 Left 0
WINDOW 39 0 0 Left 0
SYMATTR InstName I1
SYMATTR Value PULSE(10m 1500m 100m 1us 1us 50u 1)
TEXT -272 760 Left 2 !.tran 0 1500m 0
TEXT -272 816 Left 2 !.param fback1 270
TEXT -272 856 Left 2 !.param fback2 = 820
TEXT 160 856 Left 2 !.param Uin 12
TEXT 160 808 Left 2 ;.param Cadj 10u
TEXT 520 808 Left 2 !.step param Cadj list 0 10u
